%%%%%%%%%%%%%%%%%%%%%%%%%%%%%%%%%%%%%%%%%%%%%%%%%%%%%%%%%%%%%%%%%%%%%%%%%%%%%%%%%
%                                                                               %
% SU2 configuration file                                                        %
% Case description: 2D flat plate with CHT coupling                             %
%                                                                               %
%                                                                               %
%%%%%%%%%%%%%%%%%%%%%%%%%%%%%%%%%%%%%%%%%%%%%%%%%%%%%%%%%%%%%%%%%%%%%%%%%%%%%%%%%

%
% Physical governing equations (EULER, NAVIER_STOKES,
%                               WAVE_EQUATION, HEAT_EQUATION, FEM_ELASTICITY,
%                               POISSON_EQUATION)             
SOLVER= MULTIPHYSICS
%
% Mathematical problem (DIRECT, CONTINUOUS_ADJOINT, DISCRETE_ADJOINT)
MATH_PROBLEM= DIRECT
% 
CONFIG_LIST = (mz_flatplate_flow.cfg, mz_flatplate_solid.cfg)
%
%
MARKER_ZONE_INTERFACE= (plate_outer, plate_inner)
%
%
MARKER_CHT_INTERFACE= (plate_outer, plate_inner)
%
%
TIME_DOMAIN = NO
%
% Number of total iterations
OUTER_ITER = 9999
%
% Mesh input file
MESH_FILENAME= mz_flatplate_mesh.su2
%
% Mesh input file format (SU2, CGNS, NETCDF_ASCII)
MESH_FORMAT= SU2
%
MULTIZONE_MESH= YES
CONV_RESIDUAL_MINVAL= -7